# Host specific stuff
COMPOSE_PROJECT_NAME=modflow_service_dev
HOST_URL=modflow.inowas.com
MODFLOW_DATA=./modflow-data
TRAEFIK_CERT_RESOLVER=letsencrypt
TRAEFIK_NETWORK=traefik
