# Host specific stuff
HOST_URL=modflow.inowas.com
MODFLOW_DATA=./modflow-data
