# RCH package for  MODFLOW-2005, generated by Flopy.
         3         0
         1        -1 # Stress period 1
CONSTANT    3.300000E-04                           #rech_1                        
        -1        -1 # Stress period 2
        -1        -1 # Stress period 3
