# CHD package for  MODFLOW-2005, generated by Flopy.
        12
        12         0 # stress period 1
         1         1         1           450.0           450.0
         1         2         1           450.0           450.0
         1         3         1           450.0           450.0
         1         4         1           450.0           450.0
         1         5         1           450.0           450.0
         1         6         1           450.0           450.0
         1         1        11           445.0           445.0
         1         2        11           445.0           445.0
         1         3        11           445.0           445.0
         1         4        11           445.0           445.0
         1         5        11           445.0           445.0
         1         6        11           445.0           445.0
        -1         0 # stress period 2
        -1         0 # stress period 3
