# WEL package for  MODFLOW-2005, generated by Flopy.
         6         0 
         0         0 # stress period 1
         6         0 # stress period 2
         1         2         2         -5000.0
         1         2         3         -5000.0
         1         2         7        -10000.0
         1         2        10         -5000.0
         1         4         2         -5000.0
         1         5         5         -5000.0
        -1         0 # stress period 3
