# RIV package for  MODFLOW-2005, generated by Flopy.
        13         0
        13         0 # stress period 1
         1         6         2           450.0            86.4           448.0
         1         6         3           450.0            86.4           448.0
         1         5         3           450.0            86.4           448.0
         1         5         4           450.0            86.4           448.0
         1         4         4           450.0            86.4           448.0
         1         4         5           450.0            86.4           448.0
         1         4         6           450.0            86.4           448.0
         1         4         7           450.0            86.4           448.0
         1         4         8           450.0            86.4           448.0
         1         3         8           450.0            86.4           448.0
         1         3         9           450.0            86.4           448.0
         1         3        10           450.0            86.4           448.0
         1         2        11           450.0            86.4           448.0
        -1         0 # stress period 2
        -1         0 # stress period 3
