# CHD package for  MODFLOW-2005, generated by Flopy.
       325
       325         0 # stress period 1
         4       100         4            33.0            35.0
         4        99         4            33.0            35.0
         4        98         4            33.0            35.0
         4        97         4            33.0            35.0
         4        96         4            33.0            35.0
         4        95         4            33.0            35.0
         4        94         4            33.0            35.0
         4        93         4            33.0            35.0
         4        92         4            33.0            35.0
         4        91         4            33.0            35.0
         4        90         4            33.0            35.0
         4        89         4            33.0            35.0
         4        88         4            33.0            35.0
         4        87         4            33.0            35.0
         4        86         4            33.0            35.0
         4        85         4            33.0            35.0
         4        84         4            33.0            35.0
         4        83         4            33.0            35.0
         4        82         3            33.0            35.0
         4        82         4            33.0            35.0
         4        81         3            33.0            35.0
         4        80         3            33.0            35.0
         4        79         3            33.0            35.0
         4        78         3            33.0            35.0
         4        77         3            33.0            35.0
         4        76         3            33.0            35.0
         4        75         3            33.0            35.0
         4        74         3            33.0            35.0
         4        73         3            33.0            35.0
         4        72         3            33.0            35.0
         4        71         3            33.0            35.0
         4        70         3            33.0            35.0
         4        69         3            33.0            35.0
         4        68         3            33.0            35.0
         4        67         3            33.0            35.0
         4        66         3            33.0            35.0
         4        65         3            33.0            35.0
         4        64         3            33.0            35.0
         4        63         3            33.0            35.0
         4        62         3            33.0            35.0
         4        61         3            33.0            35.0
         4        60         3            33.0            35.0
         4        59         3            33.0            35.0
         4        58         3            33.0            35.0
         4        57         3            33.0            35.0
         4        56         3            33.0            35.0
         4        55         3            33.0            35.0
         4        54         3            33.0            35.0
         4        53         3            33.0            35.0
         4        52         3            33.0            35.0
         4        51         3            33.0            35.0
         4        50         3            33.0            35.0
         4        49         3            33.0            35.0
         4        48         3            33.0            35.0
         4        47         3            33.0            35.0
         4        46         3            33.0            35.0
         4        45         3            33.0            35.0
         4        44         3            33.0            35.0
         4        43         2            33.0            35.0
         4        43         3            33.0            35.0
         4        42         2            33.0            35.0
         4        41         2            33.0            35.0
         4        40         2            33.0            35.0
         4        39         2            33.0            35.0
         4        38         2            33.0            35.0
         4        37         2            33.0            35.0
         4        36         2            33.0            35.0
         4        35         2            33.0            35.0
         4        34         2            33.0            35.0
         4        33         2            33.0            35.0
         4        32         2            33.0            35.0
         4        31         2            33.0            35.0
         4        30         2            33.0            35.0
         4        29         2            33.0            35.0
         4        28         2            33.0            35.0
         4        27         2            33.0            35.0
         4        26         2            33.0            35.0
         4        25         2            33.0            35.0
         4        24         2            33.0            35.0
         4        23         2            33.0            35.0
         4        22         2            33.0            35.0
         4        21         2            33.0            35.0
         4        20         2            33.0            35.0
         4        19         2            33.0            35.0
         4        18         2            33.0            35.0
         4        17         2            33.0            35.0
         4        16         2            33.0            35.0
         4        15         2            33.0            35.0
         4        14         2            33.0            35.0
         4        13         2            33.0            35.0
         4        12         2            33.0            35.0
         4        11         2            33.0            35.0
         4        10         2            33.0            35.0
         4         9         2            33.0            35.0
         4         8         2            33.0            35.0
         4         7         2            33.0            35.0
         4         6         2            33.0            35.0
         4         5         2            33.0            35.0
         4         4         1            33.0            35.0
         4         4         2            33.0            35.0
         4         3         1            33.0            35.0
         4         3        71            33.0            35.0
         4         3        72            33.0            35.0
         4         3        73            33.0            35.0
         4         3        74            33.0            35.0
         4         3        75            33.0            35.0
         4         3        76            33.0            35.0
         4         3        77            33.0            35.0
         4         3        78            33.0            35.0
         4         3        79            33.0            35.0
         4         3        80            33.0            35.0
         4         3        81            33.0            35.0
         4         3        82            33.0            35.0
         4         3        83            33.0            35.0
         4         3        84            33.0            35.0
         4         3        85            33.0            35.0
         4         3        86            33.0            35.0
         4         3        87            33.0            35.0
         4         3        88            33.0            35.0
         4         3        89            33.0            35.0
         4         3        90            33.0            35.0
         4         3        91            33.0            35.0
         4         3        92            33.0            35.0
         4         3        93            33.0            35.0
         4         3        94            33.0            35.0
         4         3        95            33.0            35.0
         4         3        96            33.0            35.0
         4         3        97            33.0            35.0
         4         3        98            33.0            35.0
         4         3        99            33.0            35.0
         4         3       100            33.0            35.0
         4         2         1            33.0            35.0
         4         2        21            33.0            35.0
         4         2        22            33.0            35.0
         4         2        23            33.0            35.0
         4         2        24            33.0            35.0
         4         2        25            33.0            35.0
         4         2        26            33.0            35.0
         4         2        27            33.0            35.0
         4         2        28            33.0            35.0
         4         2        29            33.0            35.0
         4         2        30            33.0            35.0
         4         2        31            33.0            35.0
         4         2        32            33.0            35.0
         4         2        33            33.0            35.0
         4         2        34            33.0            35.0
         4         2        35            33.0            35.0
         4         2        36            33.0            35.0
         4         2        37            33.0            35.0
         4         2        38            33.0            35.0
         4         2        39            33.0            35.0
         4         2        40            33.0            35.0
         4         2        41            33.0            35.0
         4         2        42            33.0            35.0
         4         2        43            33.0            35.0
         4         2        44            33.0            35.0
         4         2        45            33.0            35.0
         4         2        46            33.0            35.0
         4         2        47            33.0            35.0
         4         2        48            33.0            35.0
         4         2        49            33.0            35.0
         4         2        50            33.0            35.0
         4         2        51            33.0            35.0
         4         2        52            33.0            35.0
         4         2        53            33.0            35.0
         4         2        54            33.0            35.0
         4         2        55            33.0            35.0
         4         2        56            33.0            35.0
         4         2        57            33.0            35.0
         4         2        58            33.0            35.0
         4         2        59            33.0            35.0
         4         2        60            33.0            35.0
         4         2        61            33.0            35.0
         4         2        62            33.0            35.0
         4         2        63            33.0            35.0
         4         2        64            33.0            35.0
         4         2        65            33.0            35.0
         4         2        66            33.0            35.0
         4         2        67            33.0            35.0
         4         2        68            33.0            35.0
         4         2        69            33.0            35.0
         4         2        70            33.0            35.0
         4         2        71            33.0            35.0
         4         1         1            33.0            35.0
         4         1         2            33.0            35.0
         4         1         3            33.0            35.0
         4         1         4            33.0            35.0
         4         1         5            33.0            35.0
         4         1         6            33.0            35.0
         4         1         7            33.0            35.0
         4         1         8            33.0            35.0
         4         1         9            33.0            35.0
         4         1        10            33.0            35.0
         4         1        11            33.0            35.0
         4         1        12            33.0            35.0
         4         1        13            33.0            35.0
         4         1        14            33.0            35.0
         4         1        15            33.0            35.0
         4         1        16            33.0            35.0
         4         1        17            33.0            35.0
         4         1        18            33.0            35.0
         4         1        19            33.0            35.0
         4         1        20            33.0            35.0
         4         1        21            33.0            35.0
         4       100        76            35.0            35.0
         4       100        77            35.0            35.0
         4        99        77            35.0            35.0
         4        98        77            35.0            35.0
         4        97        77            35.0            35.0
         4        97        78            35.0            35.0
         4        96        78            35.0            35.0
         4        95        78            35.0            35.0
         4        95        79            35.0            35.0
         4        94        79            35.0            35.0
         4        93        79            35.0            35.0
         4        92        79            35.0            35.0
         4        92        80            35.0            35.0
         4        91        80            35.0            35.0
         4        90        80            35.0            35.0
         4        90        81            35.0            35.0
         4        89        81            35.0            35.0
         4        88        81            35.0            35.0
         4        87        81            35.0            35.0
         4        87        82            35.0            35.0
         4        86        82            35.0            35.0
         4        85        82            35.0            35.0
         4        84        82            35.0            35.0
         4        84        83            35.0            35.0
         4        83        83            35.0            35.0
         4        82        83            35.0            35.0
         4        82        84            35.0            35.0
         4        81        84            35.0            35.0
         4        80        84            35.0            35.0
         4        79        84            35.0            35.0
         4        79        85            35.0            35.0
         4        78        85            35.0            35.0
         4        77        85            35.0            35.0
         4        77        86            35.0            35.0
         4        76        86            35.0            35.0
         4        75        86            35.0            35.0
         4        74        86            35.0            35.0
         4        74        87            35.0            35.0
         4        73        87            35.0            35.0
         4        72        87            35.0            35.0
         4        72        88            35.0            35.0
         4        71        88            35.0            35.0
         4        70        88            35.0            35.0
         4        69        88            35.0            35.0
         4        69        89            35.0            35.0
         4        68        89            35.0            35.0
         4        67        89            35.0            35.0
         4        67        90            35.0            35.0
         4        66        90            35.0            35.0
         4        65        90            35.0            35.0
         4        64        90            35.0            35.0
         4        64        91            35.0            35.0
         4        63        91            35.0            35.0
         4        62        91            35.0            35.0
         4        62        92            35.0            35.0
         4        61        92            35.0            35.0
         4        60        92            35.0            35.0
         4        59        92            35.0            35.0
         4        59        93            35.0            35.0
         4        58        93            35.0            35.0
         4        57        93            35.0            35.0
         4        56        93            35.0            35.0
         4        56        94            35.0            35.0
         4        55        94            35.0            35.0
         4        54        94            35.0            35.0
         4        54        95            35.0            35.0
         4        53        95            35.0            35.0
         4        52        95            35.0            35.0
         4        51        95            35.0            35.0
         4        51        96            35.0            35.0
         4        50        96            35.0            35.0
         4        49        96            35.0            35.0
         4        49        97            35.0            35.0
         4        48        97            35.0            35.0
         4        47        97            35.0            35.0
         4        46        97            35.0            35.0
         4        46        98            35.0            35.0
         4        45        98            35.0            35.0
         4        44        98            35.0            35.0
         4        44        99            35.0            35.0
         4        43        99            35.0            35.0
         4        42        99            35.0            35.0
         4        41        99            35.0            35.0
         4        40        99            35.0            35.0
         4        39        99            35.0            35.0
         4        38        99            35.0            35.0
         4        37        99            35.0            35.0
         4        36        99            35.0            35.0
         4        35        99            35.0            35.0
         4        34        99            35.0            35.0
         4        33        99            35.0            35.0
         4        32        99            35.0            35.0
         4        31        99            35.0            35.0
         4        30        99            35.0            35.0
         4        29        99            35.0            35.0
         4        28        99            35.0            35.0
         4        27        99            35.0            35.0
         4        26        99            35.0            35.0
         4        25        99            35.0            35.0
         4        24        99            35.0            35.0
         4        23        99            35.0            35.0
         4        22        99            35.0            35.0
         4        21        99            35.0            35.0
         4        20        99            35.0            35.0
         4        19        99            35.0            35.0
         4        18        99            35.0            35.0
         4        17        99            35.0            35.0
         4        16        99            35.0            35.0
         4        15        99            35.0            35.0
         4        14        99            35.0            35.0
         4        13        99            35.0            35.0
         4        12        99            35.0            35.0
         4        11        99            35.0            35.0
         4        10        99            35.0            35.0
         4         9        99            35.0            35.0
         4         8        99            35.0            35.0
         4         7        99            35.0            35.0
         4         6        99            35.0            35.0
         4         5        99            35.0            35.0
         4         4        99            35.0            35.0
         4         3        99            35.0            35.0
