# DIS package for  MODFLOW-2005, generated by Flopy.
         4       100       100         1         4         2
  0  0  0  0
CONSTANT    7.365000E+00                           #delr                          
CONSTANT    9.494000E+00                           #delc                          
CONSTANT    1.000000E+00                           #model_top                     
INTERNAL               1 (100E15.6) -1 #botm layer 1                  
   2.300000E+01   2.300000E+01   2.300000E+01   2.300000E+01   2.300000E+01   2.300000E+01   2.300000E+01   2.300000E+01   2.300000E+01   2.300000E+01   2.300000E+01   2.300000E+01   2.300000E+01   2.300000E+01   2.300000E+01   2.300000E+01   2.300000E+01   2.300000E+01   2.300000E+01   2.300000E+01   2.300000E+01   2.300000E+01   2.300000E+01   2.300000E+01   2.300000E+01   2.300000E+01   2.300000E+01   2.300000E+01   2.300000E+01   2.300000E+01   2.300000E+01   2.300000E+01   2.300000E+01   2.300000E+01   2.300000E+01   2.300000E+01   2.300000E+01   2.300000E+01   2.300000E+01   2.300000E+01   2.300000E+01   2.300000E+01   2.300000E+01   2.300000E+01   2.300000E+01   2.300000E+01   2.300000E+01   2.300000E+01   2.300000E+01   2.300000E+01   2.300000E+01   2.300000E+01   2.300000E+01   2.300000E+01   2.300000E+01   2.300000E+01   2.300000E+01   2.300000E+01   2.300000E+01   2.300000E+01   2.300000E+01   2.300000E+01   2.300000E+01   2.300000E+01   2.300000E+01   2.300000E+01   2.300000E+01   2.300000E+01   2.300000E+01   2.300000E+01   2.300000E+01   2.300000E+01   2.300000E+01   2.300000E+01   2.300000E+01   2.300000E+01   2.300000E+01   2.300000E+01   2.300000E+01   2.300000E+01   2.300000E+01   2.300000E+01   2.300000E+01   2.300000E+01   2.300000E+01   2.300000E+01   2.300000E+01   2.300000E+01   2.300000E+01   2.300000E+01   2.300000E+01   2.300000E+01   2.300000E+01   2.300000E+01   2.300000E+01   2.300000E+01   2.300000E+01   2.300000E+01   2.300000E+01   2.300000E+01
   2.300000E+01   2.300000E+01   2.300000E+01   2.300000E+01   2.300000E+01   2.300000E+01   2.300000E+01   2.300000E+01   2.300000E+01   2.300000E+01   2.300000E+01   2.300000E+01   2.300000E+01   2.300000E+01   2.300000E+01   2.300000E+01   2.300000E+01   2.300000E+01   2.300000E+01   2.300000E+01   2.300000E+01   2.300000E+01   2.300000E+01   2.300000E+01   2.300000E+01   2.300000E+01   2.300000E+01   2.300000E+01   2.300000E+01   2.300000E+01   2.300000E+01   2.300000E+01   2.300000E+01   2.300000E+01   2.300000E+01   2.300000E+01   2.300000E+01   2.300000E+01   2.300000E+01   2.300000E+01   2.300000E+01   2.300000E+01   2.300000E+01   2.300000E+01   2.300000E+01   2.300000E+01   2.300000E+01   2.300000E+01   2.300000E+01   2.300000E+01   2.300000E+01   2.300000E+01   2.300000E+01   2.300000E+01   2.300000E+01   2.300000E+01   2.300000E+01   2.300000E+01   2.300000E+01   2.300000E+01   2.300000E+01   2.300000E+01   2.300000E+01   2.300000E+01   2.300000E+01   2.300000E+01   2.300000E+01   2.300000E+01   2.300000E+01   2.300000E+01   2.300000E+01   2.300000E+01   2.300000E+01   2.300000E+01   2.300000E+01   2.300000E+01   2.300000E+01   2.300000E+01   2.300000E+01   2.300000E+01   2.300000E+01   2.300000E+01   2.300000E+01   2.300000E+01   2.300000E+01   2.300000E+01   2.300000E+01   2.300000E+01   2.300000E+01   2.300000E+01   2.300000E+01   2.300000E+01   2.300000E+01   2.300000E+01   2.300000E+01   2.300000E+01   2.300000E+01   2.300000E+01   2.300000E+01   2.300000E+01
   2.300000E+01   2.300000E+01   2.300000E+01   2.300000E+01   2.300000E+01   2.300000E+01   2.300000E+01   2.300000E+01   2.300000E+01   2.300000E+01   2.300000E+01   2.300000E+01   2.300000E+01   2.300000E+01   2.300000E+01   2.300000E+01   2.300000E+01   2.300000E+01   2.300000E+01   2.300000E+01   2.300000E+01   2.300000E+01   2.300000E+01   2.300000E+01   2.300000E+01   2.300000E+01   2.300000E+01   2.300000E+01   2.300000E+01   2.300000E+01   2.300000E+01   2.300000E+01   2.300000E+01   2.300000E+01   2.300000E+01   2.300000E+01   2.300000E+01   2.300000E+01   2.300000E+01   2.300000E+01   2.300000E+01   2.300000E+01   2.300000E+01   2.300000E+01   2.300000E+01   2.300000E+01   2.300000E+01   2.300000E+01   2.300000E+01   2.300000E+01   2.300000E+01   2.300000E+01   2.300000E+01   2.300000E+01   2.300000E+01   2.300000E+01   2.300000E+01   2.300000E+01   2.300000E+01   2.300000E+01   2.300000E+01   2.300000E+01   2.300000E+01   2.300000E+01   2.300000E+01   2.300000E+01   2.300000E+01   2.300000E+01   2.300000E+01   2.300000E+01   2.300000E+01   2.300000E+01   2.300000E+01   2.300000E+01   2.300000E+01   2.300000E+01   2.300000E+01   2.300000E+01   2.300000E+01   2.300000E+01   2.300000E+01   2.300000E+01   2.300000E+01   2.300000E+01   2.300000E+01   2.300000E+01   2.300000E+01   2.300000E+01   2.300000E+01   2.300000E+01   2.300000E+01   2.300000E+01   2.300000E+01   2.300000E+01   2.300000E+01   2.300000E+01   2.300000E+01   2.300000E+01   2.300000E+01   2.300000E+01
   2.300000E+01   2.300000E+01   2.300000E+01   2.300000E+01   2.300000E+01   2.300000E+01   2.300000E+01   2.300000E+01   2.300000E+01   2.300000E+01   2.300000E+01   2.300000E+01   2.300000E+01   2.300000E+01   2.300000E+01   2.300000E+01   2.300000E+01   2.300000E+01   2.300000E+01   2.300000E+01   2.300000E+01   2.300000E+01   2.300000E+01   2.300000E+01   2.300000E+01   2.300000E+01   2.300000E+01   2.300000E+01   2.300000E+01   2.300000E+01   2.300000E+01   2.300000E+01   2.300000E+01   2.300000E+01   2.300000E+01   2.300000E+01   2.300000E+01   2.300000E+01   2.300000E+01   2.300000E+01   2.300000E+01   2.300000E+01   2.300000E+01   2.300000E+01   2.300000E+01   2.300000E+01   2.300000E+01   2.300000E+01   2.300000E+01   2.300000E+01   2.300000E+01   2.300000E+01   2.300000E+01   2.300000E+01   2.300000E+01   2.300000E+01   2.300000E+01   2.300000E+01   2.300000E+01   2.300000E+01   2.300000E+01   2.300000E+01   2.300000E+01   2.300000E+01   2.300000E+01   2.300000E+01   2.300000E+01   2.300000E+01   2.300000E+01   2.300000E+01   2.300000E+01   2.300000E+01   2.300000E+01   2.300000E+01   2.300000E+01   2.300000E+01   2.300000E+01   2.300000E+01   2.300000E+01   2.300000E+01   2.300000E+01   2.300000E+01   2.300000E+01   2.300000E+01   2.300000E+01   2.300000E+01   2.300000E+01   2.300000E+01   2.300000E+01   2.300000E+01   2.300000E+01   2.300000E+01   2.300000E+01   2.300000E+01   2.300000E+01   2.300000E+01   2.300000E+01   2.300000E+01   2.300000E+01   2.300000E+01
   2.300000E+01   2.300000E+01   2.300000E+01   2.300000E+01   2.300000E+01   2.300000E+01   2.300000E+01   2.300000E+01   2.300000E+01   2.300000E+01   2.300000E+01   2.300000E+01   2.300000E+01   2.300000E+01   2.300000E+01   2.300000E+01   2.300000E+01   2.300000E+01   2.300000E+01   2.300000E+01   2.300000E+01   2.300000E+01   2.300000E+01   2.300000E+01   2.300000E+01   2.300000E+01   2.300000E+01   2.300000E+01   2.300000E+01   2.300000E+01   2.300000E+01   2.300000E+01   2.300000E+01   2.300000E+01   2.300000E+01   2.300000E+01   2.300000E+01   2.300000E+01   2.300000E+01   2.300000E+01   2.300000E+01   2.300000E+01   2.300000E+01   2.300000E+01   2.300000E+01   2.300000E+01   2.300000E+01   2.300000E+01   2.300000E+01   2.300000E+01   2.300000E+01   2.300000E+01   2.300000E+01   2.300000E+01   2.300000E+01   2.300000E+01   2.300000E+01   2.300000E+01   2.300000E+01   2.300000E+01   2.300000E+01   2.300000E+01   2.300000E+01   2.300000E+01   2.300000E+01   2.300000E+01   2.300000E+01   2.300000E+01   2.300000E+01   2.300000E+01   2.300000E+01   2.300000E+01   2.300000E+01   2.300000E+01   2.300000E+01   2.300000E+01   2.300000E+01   2.300000E+01   2.300000E+01   2.300000E+01   2.300000E+01   2.300000E+01   2.300000E+01   2.300000E+01   2.300000E+01   2.300000E+01   2.300000E+01   2.300000E+01   2.300000E+01   2.300000E+01   2.300000E+01   2.300000E+01   2.300000E+01   2.300000E+01   2.300000E+01   2.300000E+01   2.300000E+01   2.300000E+01   2.300000E+01   2.300000E+01
   2.300000E+01   2.300000E+01   2.300000E+01   2.300000E+01   2.300000E+01   2.300000E+01   2.300000E+01   2.300000E+01   2.300000E+01   2.300000E+01   2.300000E+01   2.300000E+01   2.300000E+01   2.300000E+01   2.300000E+01   2.300000E+01   2.300000E+01   2.300000E+01   2.300000E+01   2.300000E+01   2.300000E+01   2.300000E+01   2.300000E+01   2.300000E+01   2.300000E+01   2.300000E+01   2.300000E+01   2.300000E+01   2.300000E+01   2.300000E+01   2.300000E+01   2.300000E+01   2.300000E+01   2.300000E+01   2.300000E+01   2.300000E+01   2.300000E+01   2.300000E+01   2.300000E+01   2.300000E+01   2.300000E+01   2.300000E+01   2.300000E+01   2.300000E+01   2.300000E+01   2.300000E+01   2.300000E+01   2.300000E+01   2.300000E+01   2.300000E+01   2.300000E+01   2.300000E+01   2.300000E+01   2.300000E+01   2.300000E+01   2.300000E+01   2.300000E+01   2.300000E+01   2.300000E+01   2.300000E+01   2.300000E+01   2.300000E+01   2.300000E+01   2.300000E+01   2.300000E+01   2.300000E+01   2.300000E+01   2.300000E+01   2.300000E+01   2.300000E+01   2.300000E+01   2.300000E+01   2.300000E+01   2.300000E+01   2.300000E+01   2.300000E+01   2.300000E+01   2.300000E+01   2.300000E+01   2.300000E+01   2.300000E+01   2.300000E+01   2.300000E+01   2.300000E+01   2.300000E+01   2.300000E+01   2.300000E+01   2.300000E+01   2.300000E+01   2.300000E+01   2.300000E+01   2.300000E+01   2.300000E+01   2.300000E+01   2.300000E+01   2.300000E+01   2.300000E+01   2.300000E+01   2.300000E+01   2.300000E+01
   2.300000E+01   2.300000E+01   2.300000E+01   2.300000E+01   2.300000E+01   2.300000E+01   2.300000E+01   2.300000E+01   2.300000E+01   2.300000E+01   2.300000E+01   2.300000E+01   2.300000E+01   2.300000E+01   2.300000E+01   2.300000E+01   2.300000E+01   2.300000E+01   2.300000E+01   2.300000E+01   2.300000E+01   2.300000E+01   2.300000E+01   2.300000E+01   2.300000E+01   2.300000E+01   2.300000E+01   2.300000E+01   2.300000E+01   2.300000E+01   2.300000E+01   2.300000E+01   2.300000E+01   2.300000E+01   2.300000E+01   2.300000E+01   2.300000E+01   2.300000E+01   2.300000E+01   2.300000E+01   2.300000E+01   2.300000E+01   2.300000E+01   2.300000E+01   2.300000E+01   2.300000E+01   2.300000E+01   2.300000E+01   2.300000E+01   2.300000E+01   2.300000E+01   2.300000E+01   2.300000E+01   2.300000E+01   2.300000E+01   2.300000E+01   2.300000E+01   2.300000E+01   2.300000E+01   2.300000E+01   2.300000E+01   2.300000E+01   2.300000E+01   2.300000E+01   2.300000E+01   2.300000E+01   2.300000E+01   2.300000E+01   2.300000E+01   2.300000E+01   2.300000E+01   2.300000E+01   2.300000E+01   2.300000E+01   2.300000E+01   2.300000E+01   2.300000E+01   2.300000E+01   2.300000E+01   2.300000E+01   2.300000E+01   2.300000E+01   2.300000E+01   2.300000E+01   2.300000E+01   2.300000E+01   2.300000E+01   2.300000E+01   2.300000E+01   2.300000E+01   2.300000E+01   2.300000E+01   2.300000E+01   2.300000E+01   2.300000E+01   2.300000E+01   2.300000E+01   2.300000E+01   2.300000E+01   2.300000E+01
   2.300000E+01   2.300000E+01   2.300000E+01   2.300000E+01   2.300000E+01   2.300000E+01   2.300000E+01   2.300000E+01   2.300000E+01   2.300000E+01   2.300000E+01   2.300000E+01   2.300000E+01   2.300000E+01   2.300000E+01   2.300000E+01   2.300000E+01   2.300000E+01   2.300000E+01   2.300000E+01   2.300000E+01   2.300000E+01   2.300000E+01   2.300000E+01   2.300000E+01   2.300000E+01   2.300000E+01   2.300000E+01   2.300000E+01   2.300000E+01   2.300000E+01   2.300000E+01   2.300000E+01   2.300000E+01   2.300000E+01   2.300000E+01   2.300000E+01   2.300000E+01   2.300000E+01   2.300000E+01   2.300000E+01   2.300000E+01   2.300000E+01   2.300000E+01   2.300000E+01   2.300000E+01   2.300000E+01   2.300000E+01   2.300000E+01   2.300000E+01   2.300000E+01   2.300000E+01   2.300000E+01   2.300000E+01   2.300000E+01   2.300000E+01   2.300000E+01   2.300000E+01   2.300000E+01   2.300000E+01   2.300000E+01   2.300000E+01   2.300000E+01   2.300000E+01   2.300000E+01   2.300000E+01   2.300000E+01   2.300000E+01   2.300000E+01   2.300000E+01   2.300000E+01   2.300000E+01   2.300000E+01   2.300000E+01   2.300000E+01   2.300000E+01   2.300000E+01   2.300000E+01   2.300000E+01   2.300000E+01   2.300000E+01   2.300000E+01   2.300000E+01   2.300000E+01   2.300000E+01   2.300000E+01   2.300000E+01   2.300000E+01   2.300000E+01   2.300000E+01   2.300000E+01   2.300000E+01   2.300000E+01   2.300000E+01   2.300000E+01   2.300000E+01   2.300000E+01   2.300000E+01   2.300000E+01   2.300000E+01
   2.300000E+01   2.300000E+01   2.300000E+01   2.300000E+01   2.300000E+01   2.300000E+01   2.300000E+01   2.300000E+01   2.300000E+01   2.300000E+01   2.300000E+01   2.300000E+01   2.300000E+01   2.300000E+01   2.300000E+01   2.300000E+01   2.300000E+01   2.300000E+01   2.300000E+01   2.300000E+01   2.300000E+01   2.300000E+01   2.300000E+01   2.300000E+01   2.300000E+01   2.300000E+01   2.300000E+01   2.300000E+01   2.300000E+01   2.300000E+01   2.300000E+01   2.300000E+01   2.300000E+01   2.300000E+01   2.300000E+01   2.300000E+01   2.300000E+01   2.300000E+01   2.300000E+01   2.300000E+01   2.300000E+01   2.300000E+01   2.300000E+01   2.300000E+01   2.300000E+01   2.300000E+01   2.300000E+01   2.300000E+01   2.300000E+01   2.300000E+01   2.300000E+01   2.300000E+01   2.300000E+01   2.300000E+01   2.300000E+01   2.300000E+01   2.300000E+01   2.300000E+01   2.300000E+01   2.300000E+01   2.300000E+01   2.300000E+01   2.300000E+01   2.300000E+01   2.300000E+01   2.300000E+01   2.300000E+01   2.300000E+01   2.300000E+01   2.300000E+01   2.300000E+01   2.300000E+01   2.300000E+01   2.300000E+01   2.300000E+01   2.300000E+01   2.300000E+01   2.300000E+01   2.300000E+01   2.300000E+01   2.300000E+01   2.300000E+01   2.300000E+01   2.300000E+01   2.300000E+01   2.300000E+01   2.300000E+01   2.300000E+01   2.300000E+01   2.300000E+01   2.300000E+01   2.300000E+01   2.300000E+01   2.300000E+01   2.300000E+01   2.300000E+01   2.300000E+01   2.300000E+01   2.300000E+01   2.300000E+01
   2.300000E+01   2.300000E+01   2.300000E+01   2.300000E+01   2.300000E+01   2.300000E+01   2.300000E+01   2.300000E+01   2.300000E+01   2.300000E+01   2.300000E+01   2.300000E+01   2.300000E+01   2.300000E+01   2.300000E+01   2.300000E+01   2.300000E+01   2.300000E+01   2.300000E+01   2.300000E+01   2.300000E+01   2.300000E+01   2.300000E+01   2.300000E+01   2.300000E+01   2.300000E+01   2.300000E+01   2.300000E+01   2.300000E+01   2.300000E+01   2.300000E+01   2.300000E+01   2.300000E+01   2.300000E+01   2.300000E+01   2.300000E+01   2.300000E+01   2.300000E+01   2.300000E+01   2.300000E+01   2.300000E+01   2.300000E+01   2.300000E+01   2.300000E+01   2.300000E+01   2.300000E+01   2.300000E+01   2.300000E+01   2.300000E+01   2.300000E+01   2.300000E+01   2.300000E+01   2.300000E+01   2.300000E+01   2.300000E+01   2.300000E+01   2.300000E+01   2.300000E+01   2.300000E+01   2.300000E+01   2.300000E+01   2.300000E+01   2.300000E+01   2.300000E+01   2.300000E+01   2.300000E+01   2.300000E+01   2.300000E+01   2.300000E+01   2.300000E+01   2.300000E+01   2.300000E+01   2.300000E+01   2.300000E+01   2.300000E+01   2.300000E+01   2.300000E+01   2.300000E+01   2.300000E+01   2.300000E+01   2.300000E+01   2.300000E+01   2.300000E+01   2.300000E+01   2.300000E+01   2.300000E+01   2.300000E+01   2.300000E+01   2.300000E+01   2.300000E+01   2.300000E+01   2.300000E+01   2.300000E+01   2.300000E+01   2.300000E+01   2.300000E+01   2.300000E+01   2.300000E+01   2.300000E+01   2.300000E+01
   2.300000E+01   2.300000E+01   2.300000E+01   2.300000E+01   2.300000E+01   2.300000E+01   2.300000E+01   2.300000E+01   2.300000E+01   2.300000E+01   2.300000E+01   2.300000E+01   2.300000E+01   2.300000E+01   2.300000E+01   2.300000E+01   2.300000E+01   2.300000E+01   2.300000E+01   2.300000E+01   2.300000E+01   2.300000E+01   2.300000E+01   2.300000E+01   2.300000E+01   2.300000E+01   2.300000E+01   2.300000E+01   2.300000E+01   2.300000E+01   2.300000E+01   2.300000E+01   2.300000E+01   2.300000E+01   2.300000E+01   2.300000E+01   2.300000E+01   2.300000E+01   2.300000E+01   2.300000E+01   2.300000E+01   2.300000E+01   2.300000E+01   2.300000E+01   2.300000E+01   2.300000E+01   2.300000E+01   2.300000E+01   2.300000E+01   2.300000E+01   2.300000E+01   2.300000E+01   2.300000E+01   2.300000E+01   2.300000E+01   2.300000E+01   2.300000E+01   2.300000E+01   2.300000E+01   2.300000E+01   2.300000E+01   2.300000E+01   2.300000E+01   2.300000E+01   2.300000E+01   2.300000E+01   2.300000E+01   2.300000E+01   2.300000E+01   2.300000E+01   2.300000E+01   2.300000E+01   2.300000E+01   2.300000E+01   2.300000E+01   2.300000E+01   2.300000E+01   2.300000E+01   2.300000E+01   2.300000E+01   2.300000E+01   2.300000E+01   2.300000E+01   2.300000E+01   2.300000E+01   2.300000E+01   2.300000E+01   2.300000E+01   2.300000E+01   2.300000E+01   2.300000E+01   2.300000E+01   2.300000E+01   2.300000E+01   2.300000E+01   2.300000E+01   2.300000E+01   2.300000E+01   2.300000E+01   2.300000E+01
   2.300000E+01   2.300000E+01   2.300000E+01   2.300000E+01   2.300000E+01   2.300000E+01   2.300000E+01   2.300000E+01   2.300000E+01   2.300000E+01   2.300000E+01   2.300000E+01   2.300000E+01   2.300000E+01   2.300000E+01   2.300000E+01   2.300000E+01   2.300000E+01   2.300000E+01   2.300000E+01   2.300000E+01   2.300000E+01   2.300000E+01   2.300000E+01   2.300000E+01   2.300000E+01   2.300000E+01   2.300000E+01   2.300000E+01   2.300000E+01   2.300000E+01   2.300000E+01   2.300000E+01   2.300000E+01   2.300000E+01   2.300000E+01   2.300000E+01   2.300000E+01   2.300000E+01   2.300000E+01   2.300000E+01   2.300000E+01   2.300000E+01   2.300000E+01   2.300000E+01   2.300000E+01   2.300000E+01   2.300000E+01   2.300000E+01   2.300000E+01   2.300000E+01   2.300000E+01   2.300000E+01   2.300000E+01   2.300000E+01   2.300000E+01   2.300000E+01   2.300000E+01   2.300000E+01   2.300000E+01   2.300000E+01   2.300000E+01   2.300000E+01   2.300000E+01   2.300000E+01   2.300000E+01   2.300000E+01   2.300000E+01   2.300000E+01   2.300000E+01   2.300000E+01   2.300000E+01   2.300000E+01   2.300000E+01   2.300000E+01   2.300000E+01   2.300000E+01   2.300000E+01   2.300000E+01   2.300000E+01   2.300000E+01   2.300000E+01   2.300000E+01   2.300000E+01   2.300000E+01   2.300000E+01   2.300000E+01   2.300000E+01   2.300000E+01   2.300000E+01   2.300000E+01   2.300000E+01   2.300000E+01   2.300000E+01   2.300000E+01   2.300000E+01   2.300000E+01   2.300000E+01   2.300000E+01   2.300000E+01
   2.300000E+01   2.300000E+01   2.300000E+01   2.300000E+01   2.300000E+01   2.300000E+01   2.300000E+01   2.300000E+01   2.300000E+01   2.300000E+01   2.300000E+01   2.300000E+01   2.300000E+01   2.300000E+01   2.300000E+01   2.300000E+01   2.300000E+01   2.300000E+01   2.300000E+01   2.300000E+01   2.300000E+01   2.300000E+01   2.300000E+01   2.300000E+01   2.300000E+01   2.300000E+01   2.300000E+01   2.300000E+01   2.300000E+01   2.300000E+01   2.300000E+01   2.300000E+01   2.300000E+01   2.300000E+01   2.300000E+01   2.300000E+01   2.300000E+01   2.300000E+01   2.300000E+01   2.300000E+01   2.300000E+01   2.300000E+01   2.300000E+01   2.300000E+01   2.300000E+01   2.300000E+01   2.300000E+01   2.300000E+01   2.300000E+01   2.300000E+01   2.300000E+01   2.300000E+01   2.300000E+01   2.300000E+01   2.300000E+01   2.300000E+01   2.300000E+01   2.300000E+01   2.300000E+01   2.300000E+01   2.300000E+01   2.300000E+01   2.300000E+01   2.300000E+01   2.300000E+01   2.300000E+01   2.300000E+01   2.300000E+01   2.300000E+01   2.300000E+01   2.300000E+01   2.300000E+01   2.300000E+01   2.300000E+01   2.300000E+01   2.300000E+01   2.300000E+01   2.300000E+01   2.300000E+01   2.300000E+01   2.300000E+01   2.300000E+01   2.300000E+01   2.300000E+01   2.300000E+01   2.300000E+01   2.300000E+01   2.300000E+01   2.300000E+01   2.300000E+01   2.300000E+01   2.300000E+01   2.300000E+01   2.300000E+01   2.300000E+01   2.300000E+01   2.300000E+01   2.300000E+01   2.300000E+01   2.300000E+01
   2.300000E+01   2.300000E+01   2.300000E+01   2.300000E+01   2.300000E+01   2.300000E+01   2.300000E+01   2.300000E+01   2.300000E+01   2.300000E+01   2.300000E+01   2.300000E+01   2.300000E+01   2.300000E+01   2.300000E+01   2.300000E+01   2.300000E+01   2.300000E+01   2.300000E+01   2.300000E+01   2.300000E+01   2.300000E+01   2.300000E+01   2.300000E+01   2.300000E+01   2.300000E+01   2.300000E+01   2.300000E+01   2.300000E+01   2.300000E+01   2.300000E+01   2.300000E+01   2.300000E+01   2.300000E+01   2.300000E+01   2.300000E+01   2.300000E+01   2.300000E+01   2.300000E+01   2.300000E+01   2.300000E+01   2.300000E+01   2.300000E+01   2.300000E+01   2.300000E+01   2.300000E+01   2.300000E+01   2.300000E+01   2.300000E+01   2.300000E+01   2.300000E+01   2.300000E+01   2.300000E+01   2.300000E+01   2.300000E+01   2.300000E+01   2.300000E+01   2.300000E+01   2.300000E+01   2.300000E+01   2.300000E+01   2.300000E+01   2.300000E+01   2.300000E+01   2.300000E+01   2.300000E+01   2.300000E+01   2.300000E+01   2.300000E+01   2.300000E+01   2.300000E+01   2.300000E+01   2.300000E+01   2.300000E+01   2.300000E+01   2.300000E+01   2.300000E+01   2.300000E+01   2.300000E+01   2.300000E+01   2.300000E+01   2.300000E+01   2.300000E+01   2.300000E+01   2.300000E+01   2.300000E+01   2.300000E+01   2.300000E+01   2.300000E+01   2.300000E+01   2.300000E+01   2.300000E+01   2.300000E+01   2.300000E+01   2.300000E+01   2.300000E+01   2.300000E+01   2.300000E+01   2.300000E+01   2.300000E+01
   2.300000E+01   2.300000E+01   2.300000E+01   2.300000E+01   2.300000E+01   2.300000E+01   2.300000E+01   2.300000E+01   2.300000E+01   2.300000E+01   2.300000E+01   2.300000E+01   2.300000E+01   2.300000E+01   2.300000E+01   2.300000E+01   2.300000E+01   2.300000E+01   2.300000E+01   2.300000E+01   2.300000E+01   2.300000E+01   2.300000E+01   2.300000E+01   2.300000E+01   2.300000E+01   2.300000E+01   2.300000E+01   2.300000E+01   2.300000E+01   2.300000E+01   2.300000E+01   2.300000E+01   2.300000E+01   2.300000E+01   2.300000E+01   2.300000E+01   2.300000E+01   2.300000E+01   2.300000E+01   2.300000E+01   2.300000E+01   2.300000E+01   2.300000E+01   2.300000E+01   2.300000E+01   2.300000E+01   2.300000E+01   2.300000E+01   2.300000E+01   2.300000E+01   2.300000E+01   2.300000E+01   2.300000E+01   2.300000E+01   2.300000E+01   2.300000E+01   2.300000E+01   2.300000E+01   2.300000E+01   2.300000E+01   2.300000E+01   2.300000E+01   2.300000E+01   2.300000E+01   2.300000E+01   2.300000E+01   2.300000E+01   2.300000E+01   2.300000E+01   2.300000E+01   2.300000E+01   2.300000E+01   2.300000E+01   2.300000E+01   2.300000E+01   2.300000E+01   2.300000E+01   2.300000E+01   2.300000E+01   2.300000E+01   2.300000E+01   2.300000E+01   2.300000E+01   2.300000E+01   2.300000E+01   2.300000E+01   2.300000E+01   2.300000E+01   2.300000E+01   2.300000E+01   2.300000E+01   2.300000E+01   2.300000E+01   2.300000E+01   2.300000E+01   2.300000E+01   2.300000E+01   2.300000E+01   2.300000E+01
   2.300000E+01   2.300000E+01   2.300000E+01   2.300000E+01   2.300000E+01   2.300000E+01   2.300000E+01   2.300000E+01   2.300000E+01   2.300000E+01   2.300000E+01   2.300000E+01   2.300000E+01   2.300000E+01   2.300000E+01   2.300000E+01   2.300000E+01   2.300000E+01   2.300000E+01   2.300000E+01   2.300000E+01   2.300000E+01   2.300000E+01   2.300000E+01   2.300000E+01   2.300000E+01   2.300000E+01   2.300000E+01   2.300000E+01   2.300000E+01   2.300000E+01   2.300000E+01   2.300000E+01   2.300000E+01   2.300000E+01   2.300000E+01   2.300000E+01   2.300000E+01   2.300000E+01   2.300000E+01   2.300000E+01   2.300000E+01   2.300000E+01   2.300000E+01   2.300000E+01   2.300000E+01   2.300000E+01   2.300000E+01   2.300000E+01   2.300000E+01   2.300000E+01   2.300000E+01   2.300000E+01   2.300000E+01   2.300000E+01   2.300000E+01   2.300000E+01   2.300000E+01   2.300000E+01   2.300000E+01   2.300000E+01   2.300000E+01   2.300000E+01   2.300000E+01   2.300000E+01   2.300000E+01   2.300000E+01   2.300000E+01   2.300000E+01   2.300000E+01   2.300000E+01   2.300000E+01   2.300000E+01   2.300000E+01   2.300000E+01   2.300000E+01   2.300000E+01   2.300000E+01   2.300000E+01   2.300000E+01   2.300000E+01   2.300000E+01   2.300000E+01   2.300000E+01   2.300000E+01   2.300000E+01   2.300000E+01   2.300000E+01   2.300000E+01   2.300000E+01   2.300000E+01   2.300000E+01   2.300000E+01   2.300000E+01   2.300000E+01   2.300000E+01   2.300000E+01   2.300000E+01   2.300000E+01   2.300000E+01
   2.300000E+01   2.300000E+01   2.300000E+01   2.300000E+01   2.300000E+01   2.300000E+01   2.300000E+01   2.300000E+01   2.300000E+01   2.300000E+01   2.300000E+01   2.300000E+01   2.300000E+01   2.300000E+01   2.300000E+01   2.300000E+01   2.300000E+01   2.300000E+01   2.300000E+01   2.300000E+01   2.300000E+01   2.300000E+01   2.300000E+01   2.300000E+01   2.300000E+01   2.300000E+01   2.300000E+01   2.300000E+01   2.300000E+01   2.300000E+01   2.300000E+01   2.300000E+01   2.300000E+01   2.300000E+01   2.300000E+01   2.300000E+01   2.300000E+01   2.300000E+01   2.300000E+01   2.300000E+01   2.300000E+01   2.300000E+01   2.300000E+01   2.300000E+01   2.300000E+01   2.300000E+01   2.300000E+01   2.300000E+01   2.300000E+01   2.300000E+01   2.300000E+01   2.300000E+01   2.300000E+01   2.300000E+01   2.300000E+01   2.300000E+01   2.300000E+01   2.300000E+01   2.300000E+01   2.300000E+01   2.300000E+01   2.300000E+01   2.300000E+01   2.300000E+01   2.300000E+01   2.300000E+01   2.300000E+01   2.300000E+01   2.300000E+01   2.300000E+01   2.300000E+01   2.300000E+01   2.300000E+01   2.300000E+01   2.300000E+01   2.300000E+01   2.300000E+01   2.300000E+01   2.300000E+01   2.300000E+01   2.300000E+01   2.300000E+01   2.300000E+01   2.300000E+01   2.300000E+01   2.300000E+01   2.300000E+01   2.300000E+01   2.300000E+01   2.300000E+01   2.300000E+01   2.300000E+01   2.300000E+01   2.300000E+01   2.300000E+01   2.300000E+01   2.300000E+01   2.300000E+01   2.300000E+01   2.300000E+01
   2.300000E+01   2.300000E+01   2.300000E+01   2.300000E+01   2.300000E+01   2.300000E+01   2.300000E+01   2.300000E+01   2.300000E+01   2.300000E+01   2.300000E+01   2.300000E+01   2.300000E+01   2.300000E+01   2.300000E+01   2.300000E+01   2.300000E+01   2.300000E+01   2.300000E+01   2.300000E+01   2.300000E+01   2.300000E+01   2.300000E+01   2.300000E+01   2.300000E+01   2.300000E+01   2.300000E+01   2.300000E+01   2.300000E+01   2.300000E+01   2.300000E+01   2.300000E+01   2.300000E+01   2.300000E+01   2.300000E+01   2.300000E+01   2.300000E+01   2.300000E+01   2.300000E+01   2.300000E+01   2.300000E+01   2.300000E+01   2.300000E+01   2.300000E+01   2.300000E+01   2.300000E+01   2.300000E+01   2.300000E+01   2.300000E+01   2.300000E+01   2.300000E+01   2.300000E+01   2.300000E+01   2.300000E+01   2.300000E+01   2.300000E+01   2.300000E+01   2.300000E+01   2.300000E+01   2.300000E+01   2.300000E+01   2.300000E+01   2.300000E+01   2.300000E+01   2.300000E+01   2.300000E+01   2.300000E+01   2.300000E+01   2.300000E+01   2.300000E+01   2.300000E+01   2.300000E+01   2.300000E+01   2.300000E+01   2.300000E+01   2.300000E+01   2.300000E+01   2.300000E+01   2.300000E+01   2.300000E+01   2.300000E+01   2.300000E+01   2.300000E+01   2.300000E+01   2.300000E+01   2.300000E+01   2.300000E+01   2.300000E+01   2.300000E+01   2.300000E+01   2.300000E+01   2.300000E+01   2.300000E+01   2.300000E+01   2.300000E+01   2.300000E+01   2.300000E+01   2.300000E+01   2.300000E+01   2.300000E+01
   2.300000E+01   2.300000E+01   2.300000E+01   2.300000E+01   2.300000E+01   2.300000E+01   2.300000E+01   2.300000E+01   2.300000E+01   2.300000E+01   2.300000E+01   2.300000E+01   2.300000E+01   2.300000E+01   2.300000E+01   2.300000E+01   2.300000E+01   2.300000E+01   2.300000E+01   2.300000E+01   2.300000E+01   2.300000E+01   2.300000E+01   2.300000E+01   2.300000E+01   2.300000E+01   2.300000E+01   2.300000E+01   2.300000E+01   2.300000E+01   2.300000E+01   2.300000E+01   2.300000E+01   2.300000E+01   2.300000E+01   2.300000E+01   2.300000E+01   2.300000E+01   2.300000E+01   2.300000E+01   2.300000E+01   2.300000E+01   2.300000E+01   2.300000E+01   2.300000E+01   2.300000E+01   2.300000E+01   2.300000E+01   2.300000E+01   2.300000E+01   2.300000E+01   2.300000E+01   2.300000E+01   2.300000E+01   2.300000E+01   2.300000E+01   2.300000E+01   2.300000E+01   2.300000E+01   2.300000E+01   2.300000E+01   2.300000E+01   2.300000E+01   2.300000E+01   2.300000E+01   2.300000E+01   2.300000E+01   2.300000E+01   2.300000E+01   2.300000E+01   2.300000E+01   2.300000E+01   2.300000E+01   2.300000E+01   2.300000E+01   2.300000E+01   2.300000E+01   2.300000E+01   2.300000E+01   2.300000E+01   2.300000E+01   2.300000E+01   2.300000E+01   2.300000E+01   2.300000E+01   2.300000E+01   2.300000E+01   2.300000E+01   2.300000E+01   2.300000E+01   2.300000E+01   2.300000E+01   2.300000E+01   2.300000E+01   2.300000E+01   2.300000E+01   2.300000E+01   2.300000E+01   2.300000E+01   2.300000E+01