# Name file for MODFLOW-2005, generated by Flopy version 3.3.1.
#xll:-34.887447; yll:-957.4901444875488; rotation:0; proj4_str:EPSG:4326; units:meters; lenuni:2; start_datetime:2000-01-01
LIST               2  mf.list
DIS               11  mf.dis
BAS6              13  mf.bas
CHD               24  mf.chd
RCH               19  mf.rch
WEL               20  mf.wel
LPF               15  mf.lpf
PCG               27  mf.pcg
OC                14  mf.oc
DATA(BINARY)      53  mf.cbc REPLACE
DATA(BINARY)      51  mf.hds REPLACE
DATA(BINARY)      52  mf.ddn REPLACE
