# RCH package for  MODFLOW-2005, generated by Flopy.
         3         0
         1        -1 # Stress period 1
INTERNAL               1 (100E15.6) -1 #rech_1                        
   0.000000E+00   0.000000E+00   0.000000E+00   0.000000E+00   0.000000E+00   0.000000E+00   0.000000E+00   0.000000E+00   0.000000E+00   0.000000E+00   0.000000E+00   0.000000E+00   0.000000E+00   0.000000E+00   0.000000E+00   0.000000E+00   0.000000E+00   0.000000E+00   0.000000E+00   0.000000E+00   0.000000E+00   0.000000E+00   0.000000E+00   0.000000E+00   0.000000E+00   0.000000E+00   0.000000E+00   0.000000E+00   0.000000E+00   0.000000E+00   0.000000E+00   0.000000E+00   0.000000E+00   0.000000E+00   0.000000E+00   0.000000E+00   0.000000E+00   0.000000E+00   0.000000E+00   0.000000E+00   0.000000E+00   0.000000E+00   0.000000E+00   0.000000E+00   0.000000E+00   0.000000E+00   0.000000E+00   0.000000E+00   0.000000E+00   0.000000E+00   0.000000E+00   0.000000E+00   0.000000E+00   0.000000E+00   0.000000E+00   0.000000E+00   0.000000E+00   0.000000E+00   0.000000E+00   0.000000E+00   0.000000E+00   0.000000E+00   0.000000E+00   0.000000E+00   0.000000E+00   0.000000E+00   0.000000E+00   0.000000E+00   0.000000E+00   0.000000E+00   0.000000E+00   0.000000E+00   0.000000E+00   0.000000E+00   0.000000E+00   0.000000E+00   0.000000E+00   0.000000E+00   0.000000E+00   0.000000E+00   0.000000E+00   0.000000E+00   0.000000E+00   0.000000E+00   0.000000E+00   0.000000E+00   0.000000E+00   0.000000E+00   0.000000E+00   0.000000E+00   0.000000E+00   0.000000E+00   0.000000E+00   0.000000E+00   0.000000E+00   0.000000E+00   0.000000E+00   0.000000E+00   0.000000E+00   0.000000E+00
   0.000000E+00   0.000000E+00   0.000000E+00   0.000000E+00   4.000000E+01   4.000000E+01   4.000000E+01   4.000000E+01   4.000000E+01   4.000000E+01   4.000000E+01   4.000000E+01   4.000000E+01   4.000000E+01   4.000000E+01   4.000000E+01   4.000000E+01   4.000000E+01   4.000000E+01   4.000000E+01   4.000000E+01   4.000000E+01   4.000000E+01   4.000000E+01   4.000000E+01   4.000000E+01   4.000000E+01   4.000000E+01   4.000000E+01   4.000000E+01   4.000000E+01   4.000000E+01   4.000000E+01   4.000000E+01   0.000000E+00   0.000000E+00   0.000000E+00   0.000000E+00   0.000000E+00   0.000000E+00   0.000000E+00   0.000000E+00   0.000000E+00   0.000000E+00   0.000000E+00   0.000000E+00   0.000000E+00   0.000000E+00   0.000000E+00   0.000000E+00   0.000000E+00   0.000000E+00   0.000000E+00   0.000000E+00   0.000000E+00   0.000000E+00   0.000000E+00   0.000000E+00   0.000000E+00   0.000000E+00   0.000000E+00   0.000000E+00   0.000000E+00   0.000000E+00   0.000000E+00   0.000000E+00   0.000000E+00   0.000000E+00   0.000000E+00   0.000000E+00   0.000000E+00   0.000000E+00   0.000000E+00   0.000000E+00   0.000000E+00   0.000000E+00   0.000000E+00   0.000000E+00   0.000000E+00   0.000000E+00   0.000000E+00   0.000000E+00   0.000000E+00   0.000000E+00   0.000000E+00   0.000000E+00   0.000000E+00   0.000000E+00   0.000000E+00   0.000000E+00   0.000000E+00   0.000000E+00   0.000000E+00   0.000000E+00   0.000000E+00   0.000000E+00   0.000000E+00   0.000000E+00   0.000000E+00   0.000000E+00
   0.000000E+00   0.000000E+00   0.000000E+00   4.000000E+01   4.000000E+01   4.000000E+01   4.000000E+01   4.000000E+01   4.000000E+01   4.000000E+01   4.000000E+01   4.000000E+01   4.000000E+01   4.000000E+01   4.000000E+01   4.000000E+01   4.000000E+01   4.000000E+01   4.000000E+01   4.000000E+01   4.000000E+01   4.000000E+01   4.000000E+01   4.000000E+01   4.000000E+01   4.000000E+01   4.000000E+01   4.000000E+01   4.000000E+01   4.000000E+01   4.000000E+01   4.000000E+01   4.000000E+01   4.000000E+01   4.000000E+01   4.000000E+01   4.000000E+01   4.000000E+01   4.000000E+01   4.000000E+01   4.000000E+01   4.000000E+01   4.000000E+01   4.000000E+01   4.000000E+01   4.000000E+01   4.000000E+01   4.000000E+01   4.000000E+01   4.000000E+01   4.000000E+01   4.000000E+01   4.000000E+01   4.000000E+01   4.000000E+01   4.000000E+01   4.000000E+01   4.000000E+01   4.000000E+01   4.000000E+01   4.000000E+01   4.000000E+01   4.000000E+01   4.000000E+01   4.000000E+01   0.000000E+00   0.000000E+00   0.000000E+00   0.000000E+00   0.000000E+00   0.000000E+00   0.000000E+00   0.000000E+00   0.000000E+00   0.000000E+00   0.000000E+00   0.000000E+00   0.000000E+00   0.000000E+00   0.000000E+00   0.000000E+00   0.000000E+00   0.000000E+00   0.000000E+00   0.000000E+00   0.000000E+00   0.000000E+00   0.000000E+00   2.700000E+02   2.700000E+02   2.700000E+02   2.700000E+02   2.700000E+02   2.700000E+02   2.700000E+02   2.700000E+02   2.700000E+02   2.700000E+02   2.700000E+02   2.700000E+02
   0.000000E+00   0.000000E+00   0.000000E+00   4.000000E+01   4.000000E+01   4.000000E+01   4.000000E+01   4.000000E+01   4.000000E+01   4.000000E+01   4.000000E+01   4.000000E+01   4.000000E+01   4.000000E+01   4.000000E+01   4.000000E+01   4.000000E+01   4.000000E+01   4.000000E+01   4.000000E+01   4.000000E+01   4.000000E+01   4.000000E+01   4.000000E+01   4.000000E+01   4.000000E+01   4.000000E+01   4.000000E+01   4.000000E+01   4.000000E+01   4.000000E+01   4.000000E+01   4.000000E+01   4.000000E+01   4.000000E+01   4.000000E+01   4.000000E+01   4.000000E+01   4.000000E+01   4.000000E+01   4.000000E+01   4.000000E+01   4.000000E+01   4.000000E+01   4.000000E+01   4.000000E+01   4.000000E+01   4.000000E+01   4.000000E+01   4.000000E+01   4.000000E+01   4.000000E+01   4.000000E+01   4.000000E+01   4.000000E+01   4.000000E+01   4.000000E+01   4.000000E+01   4.000000E+01   4.000000E+01   4.000000E+01   4.000000E+01   4.000000E+01   4.000000E+01   4.000000E+01   4.000000E+01   4.000000E+01   4.000000E+01   4.000000E+01   4.000000E+01   4.000000E+01   4.000000E+01   4.000000E+01   4.000000E+01   4.000000E+01   4.000000E+01   4.000000E+01   4.000000E+01   4.000000E+01   4.000000E+01   4.000000E+01   4.000000E+01   4.000000E+01   4.000000E+01   4.000000E+01   4.000000E+01   4.000000E+01   4.000000E+01   3.100000E+02   2.700000E+02   2.700000E+02   2.700000E+02   2.700000E+02   2.700000E+02   2.700000E+02   2.700000E+02   2.700000E+02   2.700000E+02   2.700000E+02   2.700000E+02
   0.000000E+00   0.000000E+00   0.000000E+00   4.000000E+01   4.000000E+01   4.000000E+01   4.000000E+01   4.000000E+01   4.000000E+01   4.000000E+01   4.000000E+01   4.000000E+01   4.000000E+01   4.000000E+01   4.000000E+01   4.000000E+01   4.000000E+01   4.000000E+01   4.000000E+01   4.000000E+01   4.000000E+01   4.000000E+01   4.000000E+01   4.000000E+01   4.000000E+01   4.000000E+01   4.000000E+01   4.000000E+01   4.000000E+01   4.000000E+01   4.000000E+01   4.000000E+01   4.000000E+01   4.000000E+01   4.000000E+01   4.000000E+01   4.000000E+01   4.000000E+01   4.000000E+01   4.000000E+01   4.000000E+01   4.000000E+01   4.000000E+01   4.000000E+01   4.000000E+01   4.000000E+01   4.000000E+01   4.000000E+01   4.000000E+01   4.000000E+01   4.000000E+01   4.000000E+01   4.000000E+01   4.000000E+01   4.000000E+01   4.000000E+01   4.000000E+01   4.000000E+01   4.000000E+01   4.000000E+01   4.000000E+01   4.000000E+01   4.000000E+01   4.000000E+01   4.000000E+01   4.000000E+01   4.000000E+01   4.000000E+01   4.000000E+01   4.000000E+01   4.000000E+01   4.000000E+01   4.000000E+01   4.000000E+01   4.000000E+01   4.000000E+01   4.000000E+01   4.000000E+01   4.000000E+01   4.000000E+01   4.000000E+01   4.000000E+01   4.000000E+01   4.000000E+01   4.000000E+01   4.000000E+01   4.000000E+01   3.100000E+02   3.100000E+02   2.700000E+02   2.700000E+02   2.700000E+02   2.700000E+02   2.700000E+02   2.700000E+02   2.700000E+02   2.700000E+02   2.700000E+02   2.700000E+02   2.700000E+02
   0.000000E+00   0.000000E+00   0.000000E+00   4.000000E+01   4.000000E+01   4.000000E+01   4.000000E+01   4.000000E+01   4.000000E+01   4.000000E+01   4.000000E+01   4.000000E+01   4.000000E+01   4.000000E+01   4.000000E+01   4.000000E+01   4.000000E+01   4.000000E+01   4.000000E+01   4.000000E+01   4.000000E+01   4.000000E+01   4.000000E+01   4.000000E+01   4.000000E+01   4.000000E+01   4.000000E+01   4.000000E+01   4.000000E+01   4.000000E+01   4.000000E+01   4.000000E+01   4.000000E+01   4.000000E+01   4.000000E+01   4.000000E+01   4.000000E+01   4.000000E+01   4.000000E+01   4.000000E+01   4.000000E+01   4.000000E+01   4.000000E+01   4.000000E+01   4.000000E+01   4.000000E+01   4.000000E+01   4.000000E+01   4.000000E+01   4.000000E+01   4.000000E+01   4.000000E+01   4.000000E+01   4.000000E+01   4.000000E+01   4.000000E+01   4.000000E+01   4.000000E+01   4.000000E+01   4.000000E+01   4.000000E+01   4.000000E+01   4.000000E+01   4.000000E+01   4.000000E+01   4.000000E+01   4.000000E+01   4.000000E+01   4.000000E+01   4.000000E+01   4.000000E+01   4.000000E+01   4.000000E+01   4.000000E+01   4.000000E+01   4.000000E+01   4.000000E+01   4.000000E+01   4.000000E+01   4.000000E+01   4.000000E+01   4.000000E+01   4.000000E+01   4.000000E+01   4.000000E+01   4.000000E+01   4.000000E+01   3.100000E+02   2.700000E+02   2.700000E+02   2.700000E+02   2.700000E+02   2.700000E+02   2.700000E+02   2.700000E+02   2.700000E+02   2.700000E+02   2.700000E+02   2.700000E+02   2.700000E+02
   0.000000E+00   0.000000E+00   0.000000E+00   4.000000E+01   4.000000E+01   4.000000E+01   4.000000E+01   4.000000E+01   4.000000E+01   4.000000E+01   4.000000E+01   4.000000E+01   4.000000E+01   4.000000E+01   4.000000E+01   4.000000E+01   4.000000E+01   4.000000E+01   4.000000E+01   4.000000E+01   4.000000E+01   4.000000E+01   4.000000E+01   4.000000E+01   4.000000E+01   4.000000E+01   4.000000E+01   4.000000E+01   4.000000E+01   4.000000E+01   4.000000E+01   4.000000E+01   4.000000E+01   4.000000E+01   4.000000E+01   4.000000E+01   4.000000E+01   4.000000E+01   4.000000E+01   4.000000E+01   4.000000E+01   4.000000E+01   4.000000E+01   4.000000E+01   4.000000E+01   4.000000E+01   4.000000E+01   4.000000E+01   4.000000E+01   4.000000E+01   4.000000E+01   4.000000E+01   4.000000E+01   4.000000E+01   4.000000E+01   4.000000E+01   4.000000E+01   4.000000E+01   4.000000E+01   4.000000E+01   4.000000E+01   4.000000E+01   4.000000E+01   4.000000E+01   4.000000E+01   4.000000E+01   4.000000E+01   4.000000E+01   4.000000E+01   4.000000E+01   4.000000E+01   4.000000E+01   4.000000E+01   4.000000E+01   4.000000E+01   4.000000E+01   4.000000E+01   4.000000E+01   4.000000E+01   4.000000E+01   4.000000E+01   4.000000E+01   4.000000E+01   4.000000E+01   4.000000E+01   4.000000E+01   4.000000E+01   3.100000E+02   2.700000E+02   2.700000E+02   2.700000E+02   2.700000E+02   2.700000E+02   2.700000E+02   2.700000E+02   2.700000E+02   2.700000E+02   2.700000E+02   2.700000E+02   2.700000E+02
   0.000000E+00   0.000000E+00   0.000000E+00   4.000000E+01   4.000000E+01   4.000000E+01   4.000000E+01   4.000000E+01   4.000000E+01   4.000000E+01   4.000000E+01   4.000000E+01   4.000000E+01   4.000000E+01   4.000000E+01   4.000000E+01   4.000000E+01   4.000000E+01   4.000000E+01   4.000000E+01   4.000000E+01   4.000000E+01   4.000000E+01   4.000000E+01   4.000000E+01   4.000000E+01   4.000000E+01   4.000000E+01   4.000000E+01   4.000000E+01   4.000000E+01   4.000000E+01   4.000000E+01   4.000000E+01   4.000000E+01   4.000000E+01   4.000000E+01   4.000000E+01   4.000000E+01   4.000000E+01   4.000000E+01   4.000000E+01   4.000000E+01   4.000000E+01   4.000000E+01   4.000000E+01   4.000000E+01   4.000000E+01   4.000000E+01   4.000000E+01   4.000000E+01   4.000000E+01   4.000000E+01   4.000000E+01   4.000000E+01   4.000000E+01   4.000000E+01   4.000000E+01   4.000000E+01   4.000000E+01   4.000000E+01   4.000000E+01   4.000000E+01   4.000000E+01   4.000000E+01   4.000000E+01   4.000000E+01   4.000000E+01   4.000000E+01   4.000000E+01   4.000000E+01   4.000000E+01   4.000000E+01   4.000000E+01   4.000000E+01   4.000000E+01   4.000000E+01   4.000000E+01   4.000000E+01   4.000000E+01   4.000000E+01   4.000000E+01   4.000000E+01   4.000000E+01   4.000000E+01   4.000000E+01   3.100000E+02   3.100000E+02   2.700000E+02   2.700000E+02   2.700000E+02   2.700000E+02   2.700000E+02   2.700000E+02   2.700000E+02   2.700000E+02   2.700000E+02   2.700000E+02   2.700000E+02   2.700000E+02
   0.000000E+00   0.000000E+00   0.000000E+00   4.000000E+01   4.000000E+01   4.000000E+01   4.000000E+01   4.000000E+01   4.000000E+01   4.000000E+01   4.000000E+01   4.000000E+01   4.000000E+01   4.000000E+01   4.000000E+01   4.000000E+01   4.000000E+01   4.000000E+01   4.000000E+01   4.000000E+01   4.000000E+01   4.000000E+01   4.000000E+01   4.000000E+01   4.000000E+01   4.000000E+01   4.000000E+01   4.000000E+01   4.000000E+01   4.000000E+01   4.000000E+01   4.000000E+01   4.000000E+01   4.000000E+01   4.000000E+01   4.000000E+01   4.000000E+01   4.000000E+01   4.000000E+01   4.000000E+01   4.000000E+01   4.000000E+01   4.000000E+01   4.000000E+01   4.000000E+01   4.000000E+01   4.000000E+01   4.000000E+01   4.000000E+01   4.000000E+01   4.000000E+01   4.000000E+01   4.000000E+01   4.000000E+01   4.000000E+01   4.000000E+01   4.000000E+01   4.000000E+01   4.000000E+01   4.000000E+01   4.000000E+01   4.000000E+01   4.000000E+01   4.000000E+01   4.000000E+01   4.000000E+01   4.000000E+01   4.000000E+01   4.000000E+01   4.000000E+01   4.000000E+01   4.000000E+01   4.000000E+01   4.000000E+01   4.000000E+01   4.000000E+01   4.000000E+01   4.000000E+01   4.000000E+01   4.000000E+01   4.000000E+01   4.000000E+01   4.000000E+01   4.000000E+01   4.000000E+01   4.000000E+01   3.100000E+02   2.700000E+02   2.700000E+02   2.700000E+02   2.700000E+02   2.700000E+02   2.700000E+02   2.700000E+02   2.700000E+02   2.700000E+02   2.700000E+02   2.700000E+02   2.700000E+02   2.700000E+02
   0.000000E+00   0.000000E+00   0.000000E+00   4.000000E+01   4.000000E+01   4.000000E+01   4.000000E+01   4.000000E+01   4.000000E+01   4.000000E+01   4.000000E+01   4.000000E+01   4.000000E+01   4.000000E+01   4.000000E+01   4.000000E+01   4.000000E+01   4.000000E+01   4.000000E+01   4.000000E+01   4.000000E+01   4.000000E+01   4.000000E+01   4.000000E+01   4.000000E+01   4.000000E+01   4.000000E+01   4.000000E+01   4.000000E+01   4.000000E+01   4.000000E+01   4.000000E+01   4.000000E+01   4.000000E+01   4.000000E+01   4.000000E+01   4.000000E+01   4.000000E+01   4.000000E+01   4.000000E+01   4.000000E+01   4.000000E+01   4.000000E+01   4.000000E+01   4.000000E+01   4.000000E+01   4.000000E+01   4.000000E+01   4.000000E+01   4.000000E+01   4.000000E+01   4.000000E+01   4.000000E+01   4.000000E+01   4.000000E+01   4.000000E+01   4.000000E+01   4.000000E+01   4.000000E+01   4.000000E+01   4.000000E+01   4.000000E+01   4.000000E+01   4.000000E+01   4.000000E+01   4.000000E+01   4.000000E+01   4.000000E+01   4.000000E+01   4.000000E+01   4.000000E+01   4.000000E+01   4.000000E+01   4.000000E+01   4.000000E+01   4.000000E+01   4.000000E+01   4.000000E+01   4.000000E+01   4.000000E+01   4.000000E+01   4.000000E+01   4.000000E+01   4.000000E+01   4.000000E+01   4.000000E+01   3.100000E+02   2.700000E+02   2.700000E+02   2.700000E+02   2.700000E+02   2.700000E+02   2.700000E+02   2.700000E+02   2.700000E+02   2.700000E+02   2.700000E+02   2.700000E+02   2.700000E+02   2.700000E+02
   0.000000E+00   0.000000E+00   0.000000E+00   4.000000E+01   4.000000E+01   4.000000E+01   4.000000E+01   4.000000E+01   4.000000E+01   4.000000E+01   4.000000E+01   4.000000E+01   4.000000E+01   4.000000E+01   4.000000E+01   4.000000E+01   4.000000E+01   4.000000E+01   4.000000E+01   4.000000E+01   4.000000E+01   4.000000E+01   4.000000E+01   4.000000E+01   4.000000E+01   4.000000E+01   4.000000E+01   4.000000E+01   4.000000E+01   4.000000E+01   4.000000E+01   4.000000E+01   4.000000E+01   4.000000E+01   4.000000E+01   4.000000E+01   4.000000E+01   4.000000E+01   4.000000E+01   4.000000E+01   4.000000E+01   4.000000E+01   4.000000E+01   4.000000E+01   4.000000E+01   4.000000E+01   4.000000E+01   4.000000E+01   4.000000E+01   4.000000E+01   4.000000E+01   4.000000E+01   4.000000E+01   4.000000E+01   4.000000E+01   4.000000E+01   4.000000E+01   4.000000E+01   4.000000E+01   4.000000E+01   4.000000E+01   4.000000E+01   4.000000E+01   4.000000E+01   4.000000E+01   4.000000E+01   4.000000E+01   4.000000E+01   4.000000E+01   4.000000E+01   4.000000E+01   4.000000E+01   4.000000E+01   4.000000E+01   4.000000E+01   4.000000E+01   4.000000E+01   4.000000E+01   4.000000E+01   4.000000E+01   4.000000E+01   4.000000E+01   4.000000E+01   4.000000E+01   4.000000E+01   3.100000E+02   3.100000E+02   2.700000E+02   2.700000E+02   2.700000E+02   2.700000E+02   2.700000E+02   2.700000E+02   2.700000E+02   2.700000E+02   2.700000E+02   2.700000E+02   2.700000E+02   2.700000E+02   2.700000E+02
   0.000000E+00   0.000000E+00   0.000000E+00   4.000000E+01   4.000000E+01   4.000000E+01   4.000000E+01   4.000000E+01   4.000000E+01   4.000000E+01   4.000000E+01   4.000000E+01   4.000000E+01   4.000000E+01   4.000000E+01   4.000000E+01   4.000000E+01   4.000000E+01   4.000000E+01   4.000000E+01   4.000000E+01   4.000000E+01   4.000000E+01   4.000000E+01   4.000000E+01   4.000000E+01   4.000000E+01   4.000000E+01   4.000000E+01   4.000000E+01   4.000000E+01   4.000000E+01   4.000000E+01   4.000000E+01   4.000000E+01   4.000000E+01   4.000000E+01   4.000000E+01   4.000000E+01   4.000000E+01   4.000000E+01   4.000000E+01   4.000000E+01   4.000000E+01   4.000000E+01   4.000000E+01   4.000000E+01   4.000000E+01   4.000000E+01   4.000000E+01   4.000000E+01   4.000000E+01   4.000000E+01   4.000000E+01   4.000000E+01   4.000000E+01   4.000000E+01   4.000000E+01   4.000000E+01   4.000000E+01   4.000000E+01   4.000000E+01   4.000000E+01   4.000000E+01   4.000000E+01   4.000000E+01   4.000000E+01   4.000000E+01   4.000000E+01   4.000000E+01   4.000000E+01   4.000000E+01   4.000000E+01   4.000000E+01   4.000000E+01   4.000000E+01   4.000000E+01   4.000000E+01   4.000000E+01   4.000000E+01   4.000000E+01   4.000000E+01   4.000000E+01   4.000000E+01   4.000000E+01   3.100000E+02   2.700000E+02   2.700000E+02   2.700000E+02   2.700000E+02   2.700000E+02   2.700000E+02   2.700000E+02   2.700000E+02   2.700000E+02   2.700000E+02   2.700000E+02   2.700000E+02   2.700000E+02   2.700000E+02
   0.000000E+00   0.000000E+00   0.000000E+00   4.000000E+01   4.000000E+01   4.000000E+01   4.000000E+01   4.000000E+01   4.000000E+01   4.000000E+01   4.000000E+01   4.000000E+01   4.000000E+01   4.000000E+01   4.000000E+01   4.000000E+01   4.000000E+01   4.000000E+01   4.000000E+01   4.000000E+01   4.000000E+01   4.000000E+01   4.000000E+01   4.000000E+01   4.000000E+01   4.000000E+01   4.000000E+01   4.000000E+01   4.000000E+01   4.000000E+01   4.000000E+01   4.000000E+01   4.000000E+01   4.000000E+01   4.000000E+01   4.000000E+01   4.000000E+01   4.000000E+01   4.000000E+01   4.000000E+01   4.000000E+01   4.000000E+01   4.000000E+01   4.000000E+01   4.000000E+01   4.000000E+01   4.000000E+01   4.000000E+01   4.000000E+01   4.000000E+01   4.000000E+01   4.000000E+01   4.000000E+01   4.000000E+01   4.000000E+01   4.000000E+01   4.000000E+01   4.000000E+01   4.000000E+01   4.000000E+01   4.000000E+01   4.000000E+01   4.000000E+01   4.000000E+01   4.000000E+01   4.000000E+01   4.000000E+01   4.000000E+01   4.000000E+01   4.000000E+01   4.000000E+01   4.000000E+01   4.000000E+01   4.000000E+01   4.000000E+01   4.000000E+01   4.000000E+01   4.000000E+01   4.000000E+01   4.000000E+01   4.000000E+01   4.000000E+01   4.000000E+01   4.000000E+01   4.000000E+01   3.100000E+02   2.700000E+02   2.700000E+02   2.700000E+02   2.700000E+02   2.700000E+02   2.700000E+02   2.700000E+02   2.700000E+02   2.700000E+02   2.700000E+02   2.700000E+02   2.700000E+02   2.700000E+02   2.700000E+02
   0.000000E+00   0.000000E+00   0.000000E+00   4.000000E+01   4.000000E+01   4.000000E+01   4.000000E+01   4.000000E+01   4.000000E+01   4.000000E+01   4.000000E+01   4.000000E+01   4.000000E+01   4.000000E+01   4.000000E+01   4.000000E+01   4.000000E+01   4.000000E+01   4.000000E+01   4.000000E+01   4.000000E+01   4.000000E+01   4.000000E+01   4.000000E+01   4.000000E+01   4.000000E+01   4.000000E+01   4.000000E+01   4.000000E+01   4.000000E+01   4.000000E+01   4.000000E+01   4.000000E+01   4.000000E+01   4.000000E+01   4.000000E+01   4.000000E+01   4.000000E+01   4.000000E+01   4.000000E+01   4.000000E+01   4.000000E+01   4.000000E+01   4.000000E+01   4.000000E+01   4.000000E+01   4.000000E+01   4.000000E+01   4.000000E+01   4.000000E+01   4.000000E+01   4.000000E+01   4.000000E+01   4.000000E+01   4.000000E+01   4.000000E+01   4.000000E+01   4.000000E+01   4.000000E+01   4.000000E+01   4.000000E+01   4.000000E+01   4.000000E+01   4.000000E+01   4.000000E+01   4.000000E+01   4.000000E+01   4.000000E+01   4.000000E+01   4.000000E+01   4.000000E+01   4.000000E+01   4.000000E+01   4.000000E+01   4.000000E+01   4.000000E+01   4.000000E+01   4.000000E+01   4.000000E+01   4.000000E+01   4.000000E+01   4.000000E+01   4.000000E+01   4.000000E+01   3.100000E+02   2.700000E+02   2.700000E+02   2.700000E+02   2.700000E+02   2.700000E+02   2.700000E+02   2.700000E+02   2.700000E+02   2.700000E+02   2.700000E+02   2.700000E+02   2.700000E+02   2.700000E+02   2.700000E+02   2.700000E+02
   0.000000E+00   0.000000E+00   0.000000E+00   4.000000E+01   4.000000E+01   4.000000E+01   4.000000E+01   4.000000E+01   4.000000E+01   4.000000E+01   4.000000E+01   4.000000E+01   4.000000E+01   4.000000E+01   4.000000E+01   4.000000E+01   4.000000E+01   4.000000E+01   4.000000E+01   4.000000E+01   4.000000E+01   4.000000E+01   4.000000E+01   4.000000E+01   4.000000E+01   4.000000E+01   4.000000E+01   4.000000E+01   4.000000E+01   4.000000E+01   4.000000E+01   4.000000E+01   4.000000E+01   4.000000E+01   4.000000E+01   4.000000E+01   4.000000E+01   4.000000E+01   4.000000E+01   4.000000E+01   4.000000E+01   4.000000E+01   4.000000E+01   4.000000E+01   4.000000E+01   4.000000E+01   4.000000E+01   4.000000E+01   4.000000E+01   4.000000E+01   4.000000E+01   4.000000E+01   4.000000E+01   4.000000E+01   4.000000E+01   4.000000E+01   4.000000E+01   4.000000E+01   4.000000E+01   4.000000E+01   4.000000E+01   4.000000E+01   4.000000E+01   4.000000E+01   4.000000E+01   4.000000E+01   4.000000E+01   4.000000E+01   4.000000E+01   4.000000E+01   4.000000E+01   4.000000E+01   4.000000E+01   4.000000E+01   4.000000E+01   4.000000E+01   4.000000E+01   4.000000E+01   4.000000E+01   4.000000E+01   4.000000E+01   4.000000E+01   4.000000E+01   4.000000E+01   3.100000E+02   2.700000E+02   2.700000E+02   2.700000E+02   2.700000E+02   2.700000E+02   2.700000E+02   2.700000E+02   2.700000E+02   2.700000E+02   2.700000E+02   2.700000E+02   2.700000E+02   2.700000E+02   2.700000E+02   2.700000E+02
   0.000000E+00   0.000000E+00   0.000000E+00   4.000000E+01   4.000000E+01   4.000000E+01   4.000000E+01   4.000000E+01   4.000000E+01   4.000000E+01   4.000000E+01   4.000000E+01   4.000000E+01   4.000000E+01   4.000000E+01   4.000000E+01   4.000000E+01   4.000000E+01   4.000000E+01   4.000000E+01   4.000000E+01   4.000000E+01   4.000000E+01   4.000000E+01   4.000000E+01   4.000000E+01   4.000000E+01   4.000000E+01   4.000000E+01   4.000000E+01   4.000000E+01   4.000000E+01   4.000000E+01   4.000000E+01   4.000000E+01   4.000000E+01   4.000000E+01   4.000000E+01   4.000000E+01   4.000000E+01   4.000000E+01   4.000000E+01   4.000000E+01   4.000000E+01   4.000000E+01   4.000000E+01   4.000000E+01   4.000000E+01   4.000000E+01   4.000000E+01   4.000000E+01   4.000000E+01   4.000000E+01   4.000000E+01   4.000000E+01   4.000000E+01   4.000000E+01   4.000000E+01   4.000000E+01   4.000000E+01   4.000000E+01   4.000000E+01   4.000000E+01   4.000000E+01   4.000000E+01   4.000000E+01   4.000000E+01   4.000000E+01   4.000000E+01   4.000000E+01   4.000000E+01   4.000000E+01   4.000000E+01   4.000000E+01   4.000000E+01   4.000000E+01   4.000000E+01   4.000000E+01   4.000000E+01   4.000000E+01   4.000000E+01   4.000000E+01   4.000000E+01   4.000000E+01   3.100000E+02   2.700000E+02   2.700000E+02   2.700000E+02   2.700000E+02   2.700000E+02   2.700000E+02   2.700000E+02   2.700000E+02   2.700000E+02   2.700000E+02   2.700000E+02   2.700000E+02   2.700000E+02   2.700000E+02   2.700000E+02
   0.000000E+00   0.000000E+00   0.000000E+00   4.000000E+01   4.000000E+01   4.000000E+01   4.000000E+01   4.000000E+01   4.000000E+01   4.000000E+01   4.000000E+01   4.000000E+01   4.000000E+01   4.000000E+01   4.000000E+01   4.000000E+01   4.000000E+01   4.000000E+01   4.000000E+01   4.000000E+01   4.000000E+01   4.000000E+01   4.000000E+01   4.000000E+01   4.000000E+01   4.000000E+01   4.000000E+01   4.000000E+01   4.000000E+01   4.000000E+01   4.000000E+01   4.000000E+01   4.000000E+01   4.000000E+01   4.000000E+01   4.000000E+01   4.000000E+01   4.000000E+01   4.000000E+01   4.000000E+01   4.000000E+01   4.000000E+01   4.000000E+01   4.000000E+01   4.000000E+01   4.000000E+01   4.000000E+01   4.000000E+01   4.000000E+01   4.000000E+01   4.000000E+01   4.000000E+01   4.000000E+01   4.000000E+01   4.000000E+01   4.000000E+01   4.000000E+01   4.000000E+01   4.000000E+01   4.000000E+01   4.000000E+01   4.000000E+01   4.000000E+01   4.000000E+01   4.000000E+01   4.000000E+01   4.000000E+01   4.000000E+01   4.000000E+01   4.000000E+01   4.000000E+01   4.000000E+01   4.000000E+01   4.000000E+01   4.000000E+01   4.000000E+01   4.000000E+01   4.000000E+01   4.000000E+01   4.000000E+01   4.000000E+01   4.000000E+01   4.000000E+01   3.100000E+02   2.700000E+02   2.700000E+02   2.700000E+02   2.700000E+02   2.700000E+02   2.700000E+02   2.700000E+02   2.700000E+02   2.700000E+02   2.700000E+02   2.700000E+02   2.700000E+02   2.700000E+02   2.700000E+02   2.700000E+02   2.700000E+02
   0.000000E+00   0.000000E+00   0.000000E+00   4.000000E+01   4.000000E+01   4.000000E+01   4.000000E+01   4.000000E+01   4.000000E+01   4.000000E+01   4.000000E+01   4.000000E+01   4.000000E+01   4.000000E+01   4.000000E+01   4.000000E+01   4.000000E+01   4.000000E+01   4.000000E+01   4.000000E+01   4.000000E+01   4.000000E+01   4.000000E+01   4.000000E+01   4.000000E+01   4.000000E+01   4.000000E+01   4.000000E+01   4.000000E+01   4.000000E+01   4.000000E+01   4.000000E+01   4.000000E+01   4.000000E+01   4.000000E+01   4.000000E+01   4.000000E+01   4.000000E+01   4.000000E+01   4.000000E+01   4.000000E+01   4.000000E+01   4.000000E+01   4.000000E+01   4.000000E+01   4.000000E+01   4.000000E+01   4.000000E+01   4.000000E+01   4.000000E+01   4.000000E+01   4.000000E+01   4.000000E+01   4.000000E+01   4.000000E+01   4.000000E+01   4.000000E+01   4.000000E+01   4.000000E+01   4.000000E+01   4.000000E+01   4.000000E+01   4.000000E+01   4.000000E+01   4.000000E+01   4.000000E+01   4.000000E+01   4.000000E+01   4.000000E+01   4.000000E+01   4.000000E+01   4.000000E+01   4.000000E+01   4.000000E+01   4.000000E+01   4.000000E+01   4.000000E+01   4.000000E+01   4.000000E+01   4.000000E+01   4.000000E+01   4.000000E+01   4.000000E+01   3.100000E+02   2.700000E+02   2.700000E+02   2.700000E+02   2.700000E+02   2.700000E+02   2.700000E+02   2.700000E+02   2.700000E+02   2.700000E+02   2.700000E+02   2.700000E+02   2.700000E+02   2.700000E+02   2.700000E+02   2.700000E+02   2.700000E+02
   0.000000E+00   0.000000E+00   0.000000E+00   4.000000E+01   4.000000E+01   4.000000E+01   4.000000E+01   4.000000E+01   4.000000E+01   4.000000E+01   4.000000E+01   4.000000E+01   4.000000E+01   4.000000E+01   4.000000E+01   4.000000E+01   4.000000E+01   4.000000E+01   4.000000E+01   4.000000E+01   4.000000E+01   4.000000E+01   4.000000E+01   4.000000E+01   4.000000E+01   4.000000E+01   4.000000E+01   4.000000E+01   4.000000E+01   4.000000E+01   4.000000E+01   4.000000E+01   4.000000E+01   4.000000E+01   4.000000E+01   4.000000E+01   4.000000E+01   4.000000E+01   4.000000E+01   4.000000E+01   4.000000E+01   4.000000E+01   4.000000E+01   4.000000E+01   4.000000E+01   4.000000E+01   4.000000E+01   4.000000E+01   4.000000E+01   4.000000E+01   4.000000E+01   4.000000E+01   4.000000E+01   4.000000E+01   4.000000E+01   4.000000E+01   4.000000E+01   4.000000E+01   4.000000E+01   4.000000E+01   4.000000E+01   4.000000E+01   4.000000E+01   4.000000E+01   4.000000E+01   4.000000E+01   4.000000E+01   4.000000E+01   4.000000E+01   4.000000E+01   4.000000E+01   4.000000E+01   4.000000E+01   4.000000E+01   4.000000E+01   4.000000E+01   4.000000E+01   4.000000E+01   4.000000E+01   4.000000E+01   4.000000E+01   4.000000E+01   4.000000E+01   3.100000E+02   2.700000E+02   2.700000E+02   2.700000E+02   2.700000E+02   2.700000E+02   2.700000E+02   2.700000E+02   2.700000E+02   2.700000E+02   2.700000E+02   2.700000E+02   2.700000E+02   2.700000E+02   2.700000E+02   2.700000E+02   2.700000E+02