# BAS6 package for  MODFLOW-2005, generated by Flopy.
FREE
CONSTANT          1                                #ibound layer 1                
   -999.99
CONSTANT    4.600000E+02                           #strt layer 1                  
