# DIS package for  MODFLOW-2005, generated by Flopy.
         1         6        11         6         4         2
  0
CONSTANT    1.000000E+03                           #delr                          
CONSTANT    1.000000E+03                           #delc                          
CONSTANT    4.600000E+02                           #model_top                     
CONSTANT    3.900000E+02                           #botm layer 1                  
      1.000000             1  1.000000  SS 
     30.000000            10  1.000000  TR 
     28.000000             1  1.000000  TR 
     31.000000             1  1.000000  TR 
     30.000000            10  1.000000  TR 
     31.000000             1  1.000000  TR 
