# RCH package for  MODFLOW-2005, generated by Flopy.
         3         0
         1        -1 # Stress period 1
CONSTANT    0.000000E+00                           #rech_1(filled zero)           
         1        -1 # Stress period 2
CONSTANT    3.300000E-04                           #rech_2                        
        -1        -1 # Stress period 3
        -1        -1 # Stress period 4
        -1        -1 # Stress period 5
        -1        -1 # Stress period 6
