# OC package for  MODFLOW-2005, generated by Flopy.
HEAD PRINT FORMAT   0
HEAD SAVE UNIT    51
DRAWDOWN PRINT FORMAT   0
COMPACT BUDGET AUX

period 1 step 1 
  save head
  save budget

period 2 step 1 
  save head
  save budget

period 2 step 2 
  save head
  save budget

period 2 step 3 
  save head
  save budget

period 2 step 4 
  save head
  save budget

period 2 step 5 
  save head
  save budget

period 2 step 6 
  save head
  save budget

period 2 step 7 
  save head
  save budget

period 2 step 8 
  save head
  save budget

period 2 step 9 
  save head
  save budget

period 2 step 10 
  save head
  save budget

period 3 step 1 
  save head
  save budget

period 4 step 1 
  save head
  save budget

period 5 step 1 
  save head
  save budget

period 5 step 2 
  save head
  save budget

period 5 step 3 
  save head
  save budget

period 5 step 4 
  save head
  save budget

period 5 step 5 
  save head
  save budget

period 5 step 6 
  save head
  save budget

period 5 step 7 
  save head
  save budget

period 5 step 8 
  save head
  save budget

period 5 step 9 
  save head
  save budget

period 5 step 10 
  save head
  save budget

period 6 step 1 
  save head
  save budget

