# PCG package for  MODFLOW-2005, generated by Flopy.
50 30 1 0
0.01 0.01 1.0 0 0 3 1.0 
