# Name file for MODFLOW-2005, generated by Flopy version 3.3.2.
#xll:0.0; yll:0.0; rotation:0.0; units:meters; lenuni:2; start_datetime:1-1-1970
LIST               2  RP1.list
DIS               11  RP1.dis
BAS6              13  RP1.bas
CHD               24  RP1.chd
RCH               19  RP1.rch
LPF               15  RP1.lpf
PCG               27  RP1.pcg
OC                14  RP1.oc
DATA(BINARY)      51  RP1.hds REPLACE
