# MF2K-MT3DMS LINKER FILE
#
OUTPUT_FILE_NAME UMONS_small_model_MG_Perm_1_Day.hff
OUTPUT_FILE_UNIT
OUTPUT_FILE_HEADER standard
OUTPUT_FILE_FORMAT unformatted
